Version 4
SHEET 1 880 680
WIRE 128 -192 -240 -192
WIRE 320 -192 128 -192
WIRE 144 -144 -112 -144
WIRE 320 -128 320 -192
WIRE -240 -96 -240 -112
WIRE -96 -96 -240 -96
WIRE 128 -96 128 -192
WIRE 320 -48 128 -48
WIRE -112 -32 -112 -144
WIRE -96 -32 -112 -32
WIRE 128 -32 128 -48
WIRE -96 32 -160 32
WIRE 144 32 144 -144
WIRE 144 32 128 32
WIRE 320 32 144 32
WIRE 432 32 320 32
WIRE -160 80 -160 32
WIRE -240 160 -240 -96
WIRE -160 160 -240 160
WIRE 320 160 320 96
WIRE 320 160 -160 160
WIRE -240 192 -240 160
FLAG -240 192 0
SYMBOL Misc\\NE555 16 0 R0
SYMATTR InstName U1
SYMBOL voltage -240 -208 R0
WINDOW 123 0 0 Left 0
WINDOW 39 0 0 Left 0
SYMATTR InstName V1
SYMATTR Value 5V
SYMBOL cap 304 32 R0
SYMATTR InstName C1
SYMATTR Value 100µF
SYMBOL res -176 64 R0
SYMATTR InstName R1
SYMATTR Value 1K
SYMBOL res 304 -64 R0
SYMATTR InstName R3
SYMATTR Value 400
SYMBOL res 304 -144 R0
SYMATTR InstName R2
SYMATTR Value 1K
TEXT -274 216 Left 2 !.tran 10
