Version 4
SHEET 1 880 680
WIRE -48 80 -80 80
WIRE 80 80 -48 80
WIRE 192 80 144 80
WIRE 240 80 192 80
WIRE 256 80 240 80
WIRE -48 112 -48 80
WIRE 192 112 192 80
WIRE -48 208 -48 192
WIRE 80 208 -48 208
WIRE 192 208 192 192
WIRE 192 208 80 208
WIRE 80 240 80 208
FLAG 80 240 0
FLAG 240 80 Vout
FLAG -80 80 Vin
SYMBOL voltage -48 96 R0
WINDOW 123 24 124 Left 2
WINDOW 39 0 0 Left 0
WINDOW 3 24 152 Left 2
SYMATTR Value2 AC 1
SYMATTR InstName V1
SYMATTR Value SINE(0 1 9200)
SYMBOL res 176 96 R0
SYMATTR InstName R1
SYMATTR Value 1000
SYMBOL cap 144 64 R90
WINDOW 0 0 32 VBottom 2
WINDOW 3 32 32 VTop 2
SYMATTR InstName C1
SYMATTR Value .00000015
TEXT -80 264 Left 2 !.tran 1s
